# Example "data.mnc" file
# Lines beginning "#" are comments
 &MNC_01
# mnc_echo_gvtypes=.FALSE.,
# mnc_use_indir=.FALSE.,
  mnc_use_outdir=.TRUE.,
#  mnc_outdir_str='/n/tzipermanfs1/horvat/polynya/long_testing_front_wind_diurn_smoothed',
 mnc_outdir_str='/n/tzipermanfs1/horvat/testing/long', 
monitor_mnc=.FALSE.,
  pickup_read_mnc=.FALSE.,
  pickup_write_mnc=.FALSE.,
 &
