#  Packages
 &PACKAGES
 useDiagnostics=.TRUE.,
 useMNC=.TRUE.,
 useEXF=.TRUE.,
 useKPP=.TRUE.,
 useOBCS=.TRUE.,
 useSEAICE=.TRUE.,
# useRBCS=.TRUE.,
&
