#
# *******************
# Calendar Parameters
# *******************
 &CAL_NML
 TheCalendar='gregorian',
 startDate_1=19781216,
 startDate_2=1800,
 &
