# KPP parameters
 &KPP_PARM01
 KPPmixingMaps   = .FALSE.,
 KPPwriteState   = .FALSE.,
 KPP_ghatUseTotalDiffus=.TRUE.,
 epsilon = .1,
# Ricr = .5, 
&
